five
  MOE2019           3D

 13 12  0  0  0  0  0  0  0  0999 V2000
   69.6580   52.0890   28.5320 C   0  0  0  0  0  0  0  0  0  0  0  0
   70.3250   50.9720   29.1710 O   0  0  0  0  0  0  0  0  0  0  0  0
   71.2590   51.2960   30.2260 C   0  0  0  0  0  0  0  0  0  0  0  0
   72.3780   51.9140   29.5490 O   0  0  0  0  0  0  0  0  0  0  0  0
   73.2010   51.0450   28.7310 C   0  0  0  0  0  0  0  0  0  0  0  0
   73.9970   51.6490   28.2950 H   0  0  0  0  0  0  0  0  0  0  0  0
   72.5780   50.6130   27.9460 H   0  0  0  0  0  0  0  0  0  0  0  0
   73.6210   50.2630   29.3660 H   0  0  0  0  0  0  0  0  0  0  0  0
   71.5840   50.3860   30.7160 H   0  0  0  0  0  0  0  0  0  0  0  0
   70.8100   52.0070   30.9070 H   0  0  0  0  0  0  0  0  0  0  0  0
   70.4140   52.7280   28.0730 H   0  0  0  0  0  0  0  0  0  0  0  0
   69.0940   52.6380   29.2870 H   0  0  0  0  0  0  0  0  0  0  0  0
   68.9870   51.6890   27.7710 H   0  0  0  0  0  0  0  0  0  0  0  0
  1  2  1  0  0  0  0
  1 11  1  0  0  0  0
  1 12  1  0  0  0  0
  1 13  1  0  0  0  0
  2  3  1  0  0  0  0
  3  4  1  0  0  0  0
  3  9  1  0  0  0  0
  3 10  1  0  0  0  0
  4  5  1  0  0  0  0
  5  6  1  0  0  0  0
  5  7  1  0  0  0  0
  5  8  1  0  0  0  0
M  END
