seventeen
  MOE2019           3D

 37 36  0  0  0  0  0  0  0  0999 V2000
   69.7300   51.4760   29.8660 C   0  0  0  0  0  0  0  0  0  0  0  0
   70.6570   51.5960   28.7730 O   0  0  0  0  0  0  0  0  0  0  0  0
   71.4170   52.8140   28.7370 C   0  0  0  0  0  0  0  0  0  0  0  0
   72.2810   52.7160   29.8790 O   0  0  0  0  0  0  0  0  0  0  0  0
   73.3570   51.7750   29.7610 C   0  0  0  0  0  0  0  0  0  0  0  0
   74.2460   52.3830   28.8060 O   0  0  0  0  0  0  0  0  0  0  0  0
   75.2360   51.5100   28.2420 C   0  0  0  0  0  0  0  0  0  0  0  0
   76.0340   51.1200   29.3680 O   0  0  0  0  0  0  0  0  0  0  0  0
   76.9700   52.1110   29.8260 C   0  0  0  0  0  0  0  0  0  0  0  0
   78.0440   52.0200   28.8790 O   0  0  0  0  0  0  0  0  0  0  0  0
   78.9250   50.8990   29.0580 C   0  0  0  0  0  0  0  0  0  0  0  0
   79.7190   51.2700   30.1960 O   0  0  0  0  0  0  0  0  0  0  0  0
   80.7890   52.1860   29.9200 C   0  0  0  0  0  0  0  0  0  0  0  0
   81.7800   51.3760   29.2470 O   0  0  0  0  0  0  0  0  0  0  0  0
   82.5010   50.4200   30.0650 C   0  0  0  0  0  0  0  0  0  0  0  0
   83.2010   49.8880   29.4200 H   0  0  0  0  0  0  0  0  0  0  0  0
   81.7840   49.7230   30.5020 H   0  0  0  0  0  0  0  0  0  0  0  0
   83.0390   50.9620   30.8430 H   0  0  0  0  0  0  0  0  0  0  0  0
   81.1920   52.5660   30.8500 H   0  0  0  0  0  0  0  0  0  0  0  0
   80.4420   52.9690   29.2550 H   0  0  0  0  0  0  0  0  0  0  0  0
   79.5570   50.7830   28.1860 H   0  0  0  0  0  0  0  0  0  0  0  0
   78.3510   50.0090   29.2870 H   0  0  0  0  0  0  0  0  0  0  0  0
   77.3250   51.8520   30.8160 H   0  0  0  0  0  0  0  0  0  0  0  0
   76.5210   53.0960   29.7800 H   0  0  0  0  0  0  0  0  0  0  0  0
   75.8420   52.0550   27.5270 H   0  0  0  0  0  0  0  0  0  0  0  0
   74.7570   50.6380   27.8140 H   0  0  0  0  0  0  0  0  0  0  0  0
   72.9830   50.8320   29.3800 H   0  0  0  0  0  0  0  0  0  0  0  0
   73.8620   51.6820   30.7140 H   0  0  0  0  0  0  0  0  0  0  0  0
   72.0030   52.8540   27.8280 H   0  0  0  0  0  0  0  0  0  0  0  0
   70.7570   53.6650   28.8510 H   0  0  0  0  0  0  0  0  0  0  0  0
   70.2670   51.3100   30.7920 H   0  0  0  0  0  0  0  0  0  0  0  0
   68.9380   50.3170   29.5360 O   0  0  0  0  0  0  0  0  0  0  0  0
   69.6150   49.0350   29.5560 C   0  0  0  0  0  0  0  0  0  0  0  0
   70.3880   49.0390   28.7860 H   0  0  0  0  0  0  0  0  0  0  0  0
   70.0500   48.8830   30.5450 H   0  0  0  0  0  0  0  0  0  0  0  0
   68.8750   48.2620   29.3420 H   0  0  0  0  0  0  0  0  0  0  0  0
   69.0850   52.3460   29.8950 H   0  0  0  0  0  0  0  0  0  0  0  0
  1  2  1  0  0  0  0
  1 31  1  0  0  0  0
  1 32  1  0  0  0  0
  1 37  1  0  0  0  0
  2  3  1  0  0  0  0
  3  4  1  0  0  0  0
  3 29  1  0  0  0  0
  3 30  1  0  0  0  0
  4  5  1  0  0  0  0
  5  6  1  0  0  0  0
  5 27  1  0  0  0  0
  5 28  1  0  0  0  0
  6  7  1  0  0  0  0
  7  8  1  0  0  0  0
  7 25  1  0  0  0  0
  7 26  1  0  0  0  0
  8  9  1  0  0  0  0
  9 10  1  0  0  0  0
  9 23  1  0  0  0  0
  9 24  1  0  0  0  0
 10 11  1  0  0  0  0
 11 12  1  0  0  0  0
 11 21  1  0  0  0  0
 11 22  1  0  0  0  0
 12 13  1  0  0  0  0
 13 14  1  0  0  0  0
 13 19  1  0  0  0  0
 13 20  1  0  0  0  0
 14 15  1  0  0  0  0
 15 16  1  0  0  0  0
 15 17  1  0  0  0  0
 15 18  1  0  0  0  0
 32 33  1  0  0  0  0
 33 34  1  0  0  0  0
 33 35  1  0  0  0  0
 33 36  1  0  0  0  0
M  END
