nine
  MOE2019           3D

 21 20  0  0  0  0  0  0  0  0999 V2000
   69.5980   51.2740   28.3480 C   0  0  0  0  0  0  0  0  0  0  0  0
   70.4900   50.9890   29.4540 O   0  0  0  0  0  0  0  0  0  0  0  0
   71.3590   52.0640   29.8800 C   0  0  0  0  0  0  0  0  0  0  0  0
   72.3320   52.1680   28.8300 O   0  0  0  0  0  0  0  0  0  0  0  0
   73.3260   51.1310   28.8120 C   0  0  0  0  0  0  0  0  0  0  0  0
   74.2410   51.5190   29.8490 O   0  0  0  0  0  0  0  0  0  0  0  0
   75.1650   52.5570   29.4910 C   0  0  0  0  0  0  0  0  0  0  0  0
   76.1280   51.8950   28.6380 O   0  0  0  0  0  0  0  0  0  0  0  0
   77.0450   50.9760   29.2850 C   0  0  0  0  0  0  0  0  0  0  0  0
   77.7060   50.5680   28.5190 H   0  0  0  0  0  0  0  0  0  0  0  0
   76.4670   50.1770   29.7500 H   0  0  0  0  0  0  0  0  0  0  0  0
   77.6210   51.5240   30.0320 H   0  0  0  0  0  0  0  0  0  0  0  0
   75.6570   52.9300   30.3810 H   0  0  0  0  0  0  0  0  0  0  0  0
   74.6520   53.3310   28.9330 H   0  0  0  0  0  0  0  0  0  0  0  0
   73.8320   51.1230   27.8540 H   0  0  0  0  0  0  0  0  0  0  0  0
   72.8730   50.1780   29.0580 H   0  0  0  0  0  0  0  0  0  0  0  0
   71.8480   51.7930   30.8090 H   0  0  0  0  0  0  0  0  0  0  0  0
   70.7970   52.9860   29.9490 H   0  0  0  0  0  0  0  0  0  0  0  0
   70.1980   51.5430   27.4770 H   0  0  0  0  0  0  0  0  0  0  0  0
   68.9390   52.0950   28.6330 H   0  0  0  0  0  0  0  0  0  0  0  0
   69.0170   50.3740   28.1450 H   0  0  0  0  0  0  0  0  0  0  0  0
  1  2  1  0  0  0  0
  1 19  1  0  0  0  0
  1 20  1  0  0  0  0
  1 21  1  0  0  0  0
  2  3  1  0  0  0  0
  3  4  1  0  0  0  0
  3 17  1  0  0  0  0
  3 18  1  0  0  0  0
  4  5  1  0  0  0  0
  5  6  1  0  0  0  0
  5 15  1  0  0  0  0
  5 16  1  0  0  0  0
  6  7  1  0  0  0  0
  7  8  1  0  0  0  0
  7 13  1  0  0  0  0
  7 14  1  0  0  0  0
  8  9  1  0  0  0  0
  9 10  1  0  0  0  0
  9 11  1  0  0  0  0
  9 12  1  0  0  0  0
M  END
